test/data/matpower/frankenstein_00.m
% Case saved by PowerWorld Simulator, version 19, build date January 17, 2017
% Case Information Header = 2 lines
% A Frankenstein network for testing all of the core features of v33 data files
% developed by Carleton Coffrin (cjc@lanl.gov) June 2017
function mpc = frankenstein_00
mpc.version = '2';
mpc.baseMVA =  100.00;

%% bus data
mpc.bus = [
   1002 2      0.00     0.00      0.00     0.00  101 0.9989281     2.93603  345.00 201   1.100   0.900
   1005 2      0.00     0.00      0.00     0.00  101 1.0199983     0.12982   87.00 201   1.100   0.900
   1008 2     18.90     6.90      0.00     0.00  101 1.0203628    -0.00217   87.00 201   1.100   0.900
   1009 3     10.50     2.30      0.00   105.30  101 1.0300000     0.00000   87.00 201   1.100   0.900
];

%% generator data
mpc.gen = [
   1002     27.50      2.00      2.00      2.00  1.0200     31.30 1     27.50     16.00      0.00      0.00      0.00      0.00      0.00      0.00 0 0 0 0  27.5000
   1005     20.00   -242.52    250.00   -250.00  1.0200    320.00 1    200.00   -200.00      0.00      0.00      0.00      0.00      0.00      0.00 0 0 0 0 200.0000
   1009    -17.73    109.28    250.00   -250.00  1.0300    100.00 1    250.00   -250.00      0.00      0.00      0.00      0.00      0.00      0.00 0 0 0 0 250.0000
];

%% generator cost data
mpc.gencost = [
2 0 0 4 0 0 1 0
2 0 0 4 0 0 1 0
2 0 0 4 0 0 1 0
];

%% branch data
mpc.branch = [
   1005    1002  0.005210  0.177370   0.00000     84.00     84.00     84.00 1.02500    0.000 1    0.00    0.00    -27.46     -0.66     27.50      2.01
   1008    1005  0.001278  0.012294   0.22708   1086.00   1195.00   1086.00 0.00000    0.000 1    0.00    0.00    -18.98     -6.80     18.98    -16.79
   1005    1009  0.000475  0.004680   0.08200   1044.00   1170.00   1044.00 0.00000    0.000 1    0.00    0.00     28.45   -225.08    -28.23    218.69
];

%% bus names
mpc.bus_name = {
'FAV SPOT 02';
'FAV PLACE 05';
'FAV PLC 08';
'FAV PLACE 09';
};
